  Page 1                                    Thu Feb 23 15:47:14 2023

  ******************************************************************
  *                           E P A N E T                          *
  *                   Hydraulic and Water Quality                  *
  *                   Analysis for Pipe Networks                   *
  *                         Version 2.2                            *
  ******************************************************************
  
  Analysis begun Thu Feb 23 15:47:14 2023

  WARNING: System unbalanced at 0:00:00 hrs.
   
  WARNING: System unbalanced at 0:05:00 hrs.
   
  WARNING: System unbalanced at 0:10:00 hrs.
   
  WARNING: System unbalanced at 0:15:00 hrs.
   
  WARNING: System unbalanced at 0:20:00 hrs.
   
  WARNING: System unbalanced at 0:25:00 hrs.
   
  WARNING: System unbalanced at 0:30:00 hrs.
   
  WARNING: System unbalanced at 0:35:00 hrs.
   
  WARNING: System unbalanced at 0:40:00 hrs.
   
  WARNING: System unbalanced at 0:45:00 hrs.
   
  WARNING: System unbalanced at 0:50:00 hrs.
   
  WARNING: System unbalanced at 0:55:00 hrs.
   
  WARNING: System unbalanced at 1:00:00 hrs.
   
  WARNING: System unbalanced at 1:05:00 hrs.
   
  WARNING: System unbalanced at 1:10:00 hrs.
   
  WARNING: System unbalanced at 1:15:00 hrs.
   
  WARNING: System unbalanced at 1:20:00 hrs.
   
  WARNING: System unbalanced at 1:25:00 hrs.
   
  WARNING: System unbalanced at 1:30:00 hrs.
   
  WARNING: System unbalanced at 1:35:00 hrs.
   
  WARNING: System unbalanced at 1:40:00 hrs.
   
  WARNING: System unbalanced at 1:45:00 hrs.
   
  WARNING: System unbalanced at 1:50:00 hrs.
   
  WARNING: System unbalanced at 1:55:00 hrs.
   
  WARNING: System unbalanced at 2:00:00 hrs.
   
  WARNING: System unbalanced at 2:05:00 hrs.
   
  WARNING: System unbalanced at 2:10:00 hrs.
   
  WARNING: System unbalanced at 2:15:00 hrs.
   
  WARNING: System unbalanced at 2:20:00 hrs.
   
  WARNING: System unbalanced at 2:25:00 hrs.
   
  WARNING: System unbalanced at 2:30:00 hrs.
   
  WARNING: System unbalanced at 2:35:00 hrs.
   
  WARNING: System unbalanced at 2:40:00 hrs.
   
  WARNING: System unbalanced at 2:45:00 hrs.
   
  WARNING: System unbalanced at 2:50:00 hrs.
   
  WARNING: System unbalanced at 2:55:00 hrs.
   
  WARNING: System unbalanced at 3:00:00 hrs.
   
  WARNING: System unbalanced at 3:05:00 hrs.
   
  WARNING: System unbalanced at 3:10:00 hrs.
   
  WARNING: System unbalanced at 3:15:00 hrs.
   
  WARNING: System unbalanced at 3:20:00 hrs.
   
  WARNING: System unbalanced at 3:25:00 hrs.
   
  WARNING: System unbalanced at 3:30:00 hrs.
   
  WARNING: System unbalanced at 3:35:00 hrs.
   
  WARNING: System unbalanced at 3:40:00 hrs.
   
  WARNING: System unbalanced at 3:45:00 hrs.
   
  WARNING: System unbalanced at 3:50:00 hrs.
   
  WARNING: System unbalanced at 3:55:00 hrs.
   
  WARNING: System unbalanced at 4:00:00 hrs.
   
  WARNING: System unbalanced at 4:05:00 hrs.
   
  WARNING: System unbalanced at 4:10:00 hrs.
   
  WARNING: System unbalanced at 4:15:00 hrs.
   
  WARNING: System unbalanced at 4:20:00 hrs.
   
  WARNING: System unbalanced at 4:25:00 hrs.
   
  WARNING: System unbalanced at 4:30:00 hrs.
   
  WARNING: System unbalanced at 4:35:00 hrs.
   
  WARNING: System unbalanced at 4:40:00 hrs.
   
  WARNING: System unbalanced at 4:45:00 hrs.
   
  WARNING: System unbalanced at 4:50:00 hrs.
   
  WARNING: System unbalanced at 4:55:00 hrs.
   
  WARNING: System unbalanced at 5:00:00 hrs.
   
  WARNING: System unbalanced at 5:05:00 hrs.
   
  WARNING: System unbalanced at 5:10:00 hrs.
   
  WARNING: System unbalanced at 5:15:00 hrs.
   
  WARNING: System unbalanced at 5:20:00 hrs.
   
  WARNING: System unbalanced at 5:25:00 hrs.
   
  WARNING: System unbalanced at 5:30:00 hrs.
   
  WARNING: System unbalanced at 5:35:00 hrs.
   
  WARNING: System unbalanced at 5:40:00 hrs.
   
  WARNING: System unbalanced at 5:45:00 hrs.
   
  WARNING: System unbalanced at 5:50:00 hrs.
   
  WARNING: System unbalanced at 5:55:00 hrs.
   
  WARNING: System unbalanced at 6:00:00 hrs.
   
  WARNING: System unbalanced at 6:05:00 hrs.
   
  WARNING: System unbalanced at 6:10:00 hrs.
   
  WARNING: System unbalanced at 6:15:00 hrs.
   
  WARNING: System unbalanced at 6:20:00 hrs.
   
  WARNING: System unbalanced at 6:25:00 hrs.
   
  WARNING: System unbalanced at 6:30:00 hrs.
   
  WARNING: System unbalanced at 6:35:00 hrs.
   
  WARNING: System unbalanced at 6:40:00 hrs.
   
  WARNING: System unbalanced at 6:45:00 hrs.
   
  WARNING: System unbalanced at 6:50:00 hrs.
   
  WARNING: System unbalanced at 6:55:00 hrs.
   
  WARNING: System unbalanced at 7:00:00 hrs.
   
  WARNING: System unbalanced at 7:05:00 hrs.
   
  WARNING: System unbalanced at 7:10:00 hrs.
   
  WARNING: System unbalanced at 7:15:00 hrs.
   
  WARNING: System unbalanced at 7:20:00 hrs.
   
  WARNING: System unbalanced at 7:25:00 hrs.
   
  WARNING: System unbalanced at 7:30:00 hrs.
   
  WARNING: System unbalanced at 7:35:00 hrs.
   
  WARNING: System unbalanced at 7:40:00 hrs.
   
  WARNING: System unbalanced at 7:45:00 hrs.
   
  WARNING: System unbalanced at 7:50:00 hrs.
   
  WARNING: System unbalanced at 7:55:00 hrs.
   
  WARNING: System unbalanced at 8:00:00 hrs.
   
  WARNING: System unbalanced at 8:05:00 hrs.
   
  WARNING: System unbalanced at 8:10:00 hrs.
   
  WARNING: System unbalanced at 8:15:00 hrs.
   
  WARNING: System unbalanced at 8:20:00 hrs.
   
  WARNING: System unbalanced at 8:25:00 hrs.
   
  WARNING: System unbalanced at 8:35:00 hrs.
   
  WARNING: System unbalanced at 8:40:00 hrs.
   
  WARNING: System unbalanced at 8:45:00 hrs.
   
  WARNING: System unbalanced at 8:50:00 hrs.
   
  WARNING: System unbalanced at 8:55:00 hrs.
   
  WARNING: System unbalanced at 9:00:00 hrs.
   
  WARNING: System unbalanced at 9:05:00 hrs.
   
  WARNING: System unbalanced at 9:10:00 hrs.
   
  WARNING: System unbalanced at 9:15:00 hrs.
   
  WARNING: System unbalanced at 9:20:00 hrs.
   
  WARNING: System unbalanced at 9:25:00 hrs.
   
  WARNING: System unbalanced at 9:30:00 hrs.
   
  WARNING: System unbalanced at 9:45:00 hrs.
   
  WARNING: System unbalanced at 9:50:00 hrs.
   
  WARNING: System unbalanced at 10:05:00 hrs.
   
  WARNING: System unbalanced at 10:20:00 hrs.
   
  WARNING: System unbalanced at 10:30:00 hrs.
   
  WARNING: System unbalanced at 10:35:00 hrs.
   
  WARNING: System unbalanced at 10:40:00 hrs.
   
  WARNING: System unbalanced at 10:55:00 hrs.
   
  WARNING: System unbalanced at 11:05:00 hrs.
   
  WARNING: System unbalanced at 11:10:00 hrs.
   
  WARNING: System unbalanced at 11:20:00 hrs.
   
  WARNING: System unbalanced at 11:25:00 hrs.
   
  WARNING: System unbalanced at 11:30:00 hrs.
   
  WARNING: System unbalanced at 11:35:00 hrs.
   
  WARNING: System unbalanced at 11:40:00 hrs.
   
  WARNING: System unbalanced at 11:45:00 hrs.
   
  WARNING: System unbalanced at 11:50:00 hrs.
   
  WARNING: System unbalanced at 11:55:00 hrs.
   
  WARNING: System unbalanced at 12:05:00 hrs.
   
  WARNING: System unbalanced at 12:10:00 hrs.
   
  WARNING: System unbalanced at 12:15:00 hrs.
   
  WARNING: System unbalanced at 12:20:00 hrs.
   
  WARNING: System unbalanced at 12:40:00 hrs.
   
  WARNING: System unbalanced at 12:45:00 hrs.
   
  WARNING: System unbalanced at 12:50:00 hrs.
   
  WARNING: System unbalanced at 13:00:00 hrs.
   
  WARNING: System unbalanced at 13:20:00 hrs.
   
  WARNING: Maximum trials exceeded at 13:25:00 hrs. System may be unstable.
   
  WARNING: System unbalanced at 13:30:00 hrs.
   
  WARNING: System unbalanced at 13:35:00 hrs.
   
  WARNING: System unbalanced at 13:40:00 hrs.
   
  WARNING: System unbalanced at 13:45:00 hrs.
   
  WARNING: System unbalanced at 13:50:00 hrs.
   
  WARNING: System unbalanced at 14:10:00 hrs.
   
  WARNING: System unbalanced at 14:15:00 hrs.
   
  WARNING: System unbalanced at 14:20:00 hrs.
   
  WARNING: System unbalanced at 14:25:00 hrs.
   
  WARNING: System unbalanced at 14:30:00 hrs.
   
  WARNING: Maximum trials exceeded at 14:35:00 hrs. System may be unstable.
   
  WARNING: System unbalanced at 14:40:00 hrs.
   
  WARNING: System unbalanced at 14:55:00 hrs.
   
  WARNING: System unbalanced at 15:00:00 hrs.
   
  WARNING: System unbalanced at 15:05:00 hrs.
   
  WARNING: System unbalanced at 15:10:00 hrs.
   
  WARNING: System unbalanced at 15:15:00 hrs.
   
  WARNING: System unbalanced at 15:20:00 hrs.
   
  WARNING: System unbalanced at 15:25:00 hrs.
   
  WARNING: System unbalanced at 15:30:00 hrs.
   
  WARNING: System unbalanced at 15:35:00 hrs.
   
  WARNING: System unbalanced at 15:40:00 hrs.
   
  WARNING: System unbalanced at 15:45:00 hrs.
   
  WARNING: System unbalanced at 15:50:00 hrs.
   
  WARNING: System unbalanced at 15:55:00 hrs.
   
  WARNING: System unbalanced at 16:00:00 hrs.
   
  WARNING: System unbalanced at 16:05:00 hrs.
   
  WARNING: System unbalanced at 16:10:00 hrs.
   
  WARNING: System unbalanced at 16:15:00 hrs.
   
  WARNING: System unbalanced at 16:20:00 hrs.
   
  WARNING: System unbalanced at 16:25:00 hrs.
   
  WARNING: System unbalanced at 16:30:00 hrs.
   
  WARNING: System unbalanced at 16:35:00 hrs.
   
  WARNING: System unbalanced at 16:40:00 hrs.
   
  WARNING: System unbalanced at 16:45:00 hrs.
   
  WARNING: System unbalanced at 16:50:00 hrs.
   
  WARNING: System unbalanced at 16:55:00 hrs.
   
  WARNING: System unbalanced at 17:00:00 hrs.
   
  WARNING: System unbalanced at 17:05:00 hrs.
   
  WARNING: System unbalanced at 17:10:00 hrs.
   
  WARNING: System unbalanced at 17:15:00 hrs.
   
  WARNING: System unbalanced at 17:20:00 hrs.
   
  WARNING: System unbalanced at 17:25:00 hrs.
   
  WARNING: System unbalanced at 17:30:00 hrs.
   
  WARNING: System unbalanced at 17:35:00 hrs.
   
  WARNING: System unbalanced at 17:40:00 hrs.
   
  WARNING: System unbalanced at 17:45:00 hrs.
   
  WARNING: System unbalanced at 17:50:00 hrs.
   
  WARNING: System unbalanced at 17:55:00 hrs.
   
  WARNING: System unbalanced at 18:00:00 hrs.
   
  WARNING: System unbalanced at 18:05:00 hrs.
   
  WARNING: System unbalanced at 18:15:00 hrs.
   
  WARNING: System unbalanced at 18:20:00 hrs.
   
  WARNING: System unbalanced at 18:25:00 hrs.
   
  WARNING: System unbalanced at 18:30:00 hrs.
   
  WARNING: System unbalanced at 18:35:00 hrs.
   
  WARNING: System unbalanced at 18:40:00 hrs.
   
  WARNING: System unbalanced at 18:45:00 hrs.
   
  WARNING: System unbalanced at 19:05:00 hrs.
   
  WARNING: System unbalanced at 19:10:00 hrs.
   
  WARNING: System unbalanced at 19:15:00 hrs.
   
  WARNING: System unbalanced at 19:30:00 hrs.
   
  WARNING: System unbalanced at 19:45:00 hrs.
   
  WARNING: System unbalanced at 19:55:00 hrs.
   
  WARNING: System unbalanced at 20:00:00 hrs.
   
  WARNING: Maximum trials exceeded at 20:05:00 hrs. System may be unstable.
   
  WARNING: System unbalanced at 20:25:00 hrs.
   
  WARNING: System unbalanced at 20:45:00 hrs.
   
  WARNING: Maximum trials exceeded at 20:55:00 hrs. System may be unstable.
   
  WARNING: System unbalanced at 21:00:00 hrs.
   
  WARNING: System unbalanced at 21:05:00 hrs.
   
  WARNING: System unbalanced at 21:10:00 hrs.
   
  WARNING: System unbalanced at 21:20:00 hrs.
   
  WARNING: System unbalanced at 21:25:00 hrs.
   
  WARNING: System unbalanced at 21:30:00 hrs.
   
  WARNING: System unbalanced at 21:35:00 hrs.
   
  WARNING: System unbalanced at 21:40:00 hrs.
   
  WARNING: System unbalanced at 21:45:00 hrs.
   
  WARNING: System unbalanced at 21:50:00 hrs.
   
  WARNING: System unbalanced at 21:55:00 hrs.
   
  WARNING: System unbalanced at 22:00:00 hrs.
   
  WARNING: System unbalanced at 22:05:00 hrs.
   
  WARNING: System unbalanced at 22:10:00 hrs.
   
  WARNING: System unbalanced at 22:15:00 hrs.
   
  WARNING: System unbalanced at 22:20:00 hrs.
   
  WARNING: System unbalanced at 22:25:00 hrs.
   
  WARNING: System unbalanced at 22:30:00 hrs.
   
  WARNING: System unbalanced at 22:35:00 hrs.
   
  WARNING: System unbalanced at 22:40:00 hrs.
   
  WARNING: System unbalanced at 22:45:00 hrs.
   
  WARNING: System unbalanced at 22:50:00 hrs.
   
  WARNING: System unbalanced at 22:55:00 hrs.
   
  WARNING: System unbalanced at 23:00:00 hrs.
   
  WARNING: System unbalanced at 23:05:00 hrs.
   
  WARNING: System unbalanced at 23:10:00 hrs.
   
  WARNING: System unbalanced at 23:15:00 hrs.
   
  WARNING: System unbalanced at 23:20:00 hrs.
   
  WARNING: System unbalanced at 23:25:00 hrs.
   
  WARNING: System unbalanced at 23:30:00 hrs.
   
  WARNING: System unbalanced at 23:35:00 hrs.
   
  WARNING: System unbalanced at 23:40:00 hrs.
   
  WARNING: System unbalanced at 23:45:00 hrs.
   
  WARNING: System unbalanced at 23:50:00 hrs.
   
  WARNING: System unbalanced at 23:55:00 hrs.
   
  WARNING: System unbalanced at 24:00:00 hrs.
   
  WARNING: System unbalanced at 24:05:00 hrs.
   
  WARNING: System unbalanced at 24:10:00 hrs.
   
  WARNING: System unbalanced at 24:15:00 hrs.
   
  WARNING: System unbalanced at 24:20:00 hrs.
   
  WARNING: System unbalanced at 24:25:00 hrs.
   
  WARNING: System unbalanced at 24:30:00 hrs.
   
  WARNING: System unbalanced at 24:35:00 hrs.
   
  WARNING: System unbalanced at 24:40:00 hrs.
   
  WARNING: System unbalanced at 24:45:00 hrs.
   
  WARNING: System unbalanced at 24:50:00 hrs.
   
  WARNING: System unbalanced at 24:55:00 hrs.
   
  WARNING: System unbalanced at 25:00:00 hrs.
   
  WARNING: System unbalanced at 25:05:00 hrs.
   
  WARNING: System unbalanced at 25:10:00 hrs.
   
  WARNING: System unbalanced at 25:15:00 hrs.
   
  WARNING: System unbalanced at 25:20:00 hrs.
   
  WARNING: System unbalanced at 25:25:00 hrs.
   
  WARNING: System unbalanced at 25:30:00 hrs.
   
  WARNING: System unbalanced at 25:35:00 hrs.
   
  WARNING: System unbalanced at 25:40:00 hrs.
   
  WARNING: System unbalanced at 25:45:00 hrs.
   
  WARNING: System unbalanced at 25:50:00 hrs.
   
  WARNING: System unbalanced at 25:55:00 hrs.
   
  WARNING: System unbalanced at 26:00:00 hrs.
   
  WARNING: System unbalanced at 26:05:00 hrs.
   
  WARNING: System unbalanced at 26:10:00 hrs.
   
  WARNING: System unbalanced at 26:15:00 hrs.
   
  WARNING: System unbalanced at 26:20:00 hrs.
   
  WARNING: System unbalanced at 26:25:00 hrs.
   
  WARNING: System unbalanced at 26:30:00 hrs.
   
  WARNING: System unbalanced at 26:35:00 hrs.
   
  WARNING: System unbalanced at 26:40:00 hrs.
   
  WARNING: System unbalanced at 26:45:00 hrs.
   
  WARNING: System unbalanced at 26:50:00 hrs.
   
  WARNING: System unbalanced at 26:55:00 hrs.
   
  WARNING: System unbalanced at 27:00:00 hrs.
   
  WARNING: System unbalanced at 27:05:00 hrs.
   
  WARNING: System unbalanced at 27:10:00 hrs.
   
  WARNING: System unbalanced at 27:15:00 hrs.
   
  WARNING: System unbalanced at 27:20:00 hrs.
   
  WARNING: System unbalanced at 27:25:00 hrs.
   
  WARNING: System unbalanced at 27:30:00 hrs.
   
  WARNING: System unbalanced at 27:35:00 hrs.
   
  WARNING: System unbalanced at 27:40:00 hrs.
   
  WARNING: System unbalanced at 27:45:00 hrs.
   
  WARNING: System unbalanced at 27:50:00 hrs.
   
  WARNING: System unbalanced at 27:55:00 hrs.
   
  WARNING: System unbalanced at 28:00:00 hrs.
   
  WARNING: System unbalanced at 28:05:00 hrs.
   
  WARNING: System unbalanced at 28:10:00 hrs.
   
  WARNING: System unbalanced at 28:15:00 hrs.
   
  WARNING: System unbalanced at 28:20:00 hrs.
   
  WARNING: System unbalanced at 28:25:00 hrs.
   
  WARNING: System unbalanced at 28:30:00 hrs.
   
  WARNING: System unbalanced at 28:35:00 hrs.
   
  WARNING: System unbalanced at 28:40:00 hrs.
   
  WARNING: System unbalanced at 28:45:00 hrs.
   
  WARNING: System unbalanced at 28:50:00 hrs.
   
  WARNING: System unbalanced at 28:55:00 hrs.
   
  WARNING: System unbalanced at 29:00:00 hrs.
   
  WARNING: System unbalanced at 29:05:00 hrs.
   
  WARNING: System unbalanced at 29:10:00 hrs.
   
  WARNING: System unbalanced at 29:15:00 hrs.
   
  WARNING: System unbalanced at 29:20:00 hrs.
   
  WARNING: System unbalanced at 29:25:00 hrs.
   
  WARNING: System unbalanced at 29:30:00 hrs.
   
  WARNING: System unbalanced at 29:35:00 hrs.
   
  WARNING: System unbalanced at 29:40:00 hrs.
   
  WARNING: System unbalanced at 29:45:00 hrs.
   
  WARNING: System unbalanced at 29:50:00 hrs.
   
  WARNING: System unbalanced at 29:55:00 hrs.
   
  WARNING: System unbalanced at 30:00:00 hrs.
   
  WARNING: System unbalanced at 30:05:00 hrs.
   
  WARNING: System unbalanced at 30:10:00 hrs.
   
  WARNING: System unbalanced at 30:15:00 hrs.
   
  WARNING: System unbalanced at 30:20:00 hrs.
   
  WARNING: System unbalanced at 30:25:00 hrs.
   
  WARNING: System unbalanced at 30:30:00 hrs.
   
  WARNING: System unbalanced at 30:35:00 hrs.
   
  WARNING: System unbalanced at 30:40:00 hrs.
   
  WARNING: System unbalanced at 30:45:00 hrs.
   
  WARNING: System unbalanced at 30:50:00 hrs.
   
  WARNING: System unbalanced at 30:55:00 hrs.
   
  WARNING: System unbalanced at 31:00:00 hrs.
   
  WARNING: System unbalanced at 31:05:00 hrs.
   
  WARNING: System unbalanced at 31:10:00 hrs.
   
  WARNING: System unbalanced at 31:15:00 hrs.
   
  WARNING: System unbalanced at 31:20:00 hrs.
   
  WARNING: System unbalanced at 31:25:00 hrs.
   
  WARNING: System unbalanced at 31:30:00 hrs.
   
  WARNING: System unbalanced at 31:35:00 hrs.
   
  WARNING: System unbalanced at 31:40:00 hrs.
   
  WARNING: System unbalanced at 31:45:00 hrs.
   
  WARNING: System unbalanced at 31:50:00 hrs.
   
  WARNING: System unbalanced at 31:55:00 hrs.
   
  WARNING: System unbalanced at 32:00:00 hrs.
   
  WARNING: System unbalanced at 32:05:00 hrs.
   
  WARNING: Maximum trials exceeded at 32:10:00 hrs. System may be unstable.
   
  WARNING: System unbalanced at 32:25:00 hrs.
   
  WARNING: System unbalanced at 32:30:00 hrs.
   
  WARNING: System unbalanced at 32:35:00 hrs.
   
  WARNING: System unbalanced at 32:40:00 hrs.
   
  WARNING: System unbalanced at 32:45:00 hrs.
   
  WARNING: System unbalanced at 32:50:00 hrs.
   
  WARNING: System unbalanced at 32:55:00 hrs.
   
  WARNING: System unbalanced at 33:00:00 hrs.
   
  WARNING: System unbalanced at 33:10:00 hrs.
   
  WARNING: System unbalanced at 33:15:00 hrs.
   
  WARNING: Maximum trials exceeded at 33:25:00 hrs. System may be unstable.
   
  WARNING: System unbalanced at 33:35:00 hrs.
   
  WARNING: System unbalanced at 33:40:00 hrs.
   
  WARNING: System unbalanced at 33:50:00 hrs.
   
  WARNING: System unbalanced at 33:55:00 hrs.
   
  WARNING: System unbalanced at 34:05:00 hrs.
   
  WARNING: System unbalanced at 34:10:00 hrs.
   
  WARNING: System unbalanced at 34:15:00 hrs.
   
  WARNING: System unbalanced at 34:35:00 hrs.
   
  WARNING: System unbalanced at 34:40:00 hrs.
   
  WARNING: Maximum trials exceeded at 34:45:00 hrs. System may be unstable.
   
  WARNING: System unbalanced at 34:50:00 hrs.
   
  WARNING: System unbalanced at 34:55:00 hrs.
   
  WARNING: System unbalanced at 35:00:00 hrs.
   
  WARNING: System unbalanced at 35:05:00 hrs.
   
  WARNING: System unbalanced at 35:10:00 hrs.
   
  WARNING: System unbalanced at 35:15:00 hrs.
   
  WARNING: Maximum trials exceeded at 35:20:00 hrs. System may be unstable.
   
  WARNING: System unbalanced at 35:30:00 hrs.
   
  WARNING: System unbalanced at 35:40:00 hrs.
   
  WARNING: System unbalanced at 35:45:00 hrs.
   
  WARNING: Maximum trials exceeded at 35:50:00 hrs. System may be unstable.
   
  WARNING: System unbalanced at 36:55:00 hrs.
   
  WARNING: System unbalanced at 37:05:00 hrs.
   
  WARNING: System unbalanced at 37:10:00 hrs.
   
  WARNING: System unbalanced at 37:15:00 hrs.
   
  WARNING: System unbalanced at 37:20:00 hrs.
   
  WARNING: System unbalanced at 37:25:00 hrs.
   
  WARNING: System unbalanced at 37:30:00 hrs.
   
  WARNING: System unbalanced at 37:35:00 hrs.
   
  WARNING: System unbalanced at 37:45:00 hrs.
   
  WARNING: System unbalanced at 38:00:00 hrs.
   
  WARNING: System unbalanced at 38:20:00 hrs.
   
  WARNING: System unbalanced at 38:25:00 hrs.
   
  WARNING: System unbalanced at 38:30:00 hrs.
   
  WARNING: System unbalanced at 38:35:00 hrs.
   
  WARNING: System unbalanced at 38:45:00 hrs.
   
  WARNING: System unbalanced at 38:50:00 hrs.
   
  WARNING: System unbalanced at 38:55:00 hrs.
   
  WARNING: System unbalanced at 39:00:00 hrs.
   
  WARNING: System unbalanced at 39:05:00 hrs.
   
  WARNING: System unbalanced at 39:10:00 hrs.
   
  WARNING: System unbalanced at 39:15:00 hrs.
   
  WARNING: System unbalanced at 39:20:00 hrs.
   
  WARNING: System unbalanced at 39:25:00 hrs.
   
  WARNING: System unbalanced at 39:30:00 hrs.
   
  WARNING: System unbalanced at 39:35:00 hrs.
   
  WARNING: System unbalanced at 39:40:00 hrs.
   
  WARNING: System unbalanced at 39:45:00 hrs.
   
  WARNING: System unbalanced at 39:50:00 hrs.
   
  WARNING: System unbalanced at 39:55:00 hrs.
   
  WARNING: System unbalanced at 40:00:00 hrs.
   
  WARNING: Maximum trials exceeded at 40:05:00 hrs. System may be unstable.
   
  WARNING: System unbalanced at 40:10:00 hrs.
   
  WARNING: System unbalanced at 40:15:00 hrs.
   
  WARNING: System unbalanced at 40:20:00 hrs.
   
  WARNING: System unbalanced at 40:25:00 hrs.
   
  WARNING: System unbalanced at 40:30:00 hrs.
   
  WARNING: System unbalanced at 40:35:00 hrs.
   
  WARNING: System unbalanced at 40:40:00 hrs.
   
  WARNING: System unbalanced at 40:45:00 hrs.
   
  WARNING: System unbalanced at 40:50:00 hrs.
   
  WARNING: System unbalanced at 40:55:00 hrs.
   
  WARNING: System unbalanced at 41:00:00 hrs.
   
  WARNING: System unbalanced at 41:05:00 hrs.
   
  WARNING: System unbalanced at 41:10:00 hrs.
   
  WARNING: System unbalanced at 41:15:00 hrs.
   
  WARNING: System unbalanced at 41:20:00 hrs.
   
  WARNING: System unbalanced at 41:25:00 hrs.
   
  WARNING: System unbalanced at 41:30:00 hrs.
   
  WARNING: System unbalanced at 41:35:00 hrs.
   
  WARNING: System unbalanced at 41:40:00 hrs.
   
  WARNING: System unbalanced at 41:45:00 hrs.
   
  WARNING: System unbalanced at 41:50:00 hrs.
   
  WARNING: System unbalanced at 41:55:00 hrs.
   
  WARNING: System unbalanced at 42:00:00 hrs.
   
  WARNING: System unbalanced at 42:10:00 hrs.
   
  WARNING: System unbalanced at 42:20:00 hrs.
   
  WARNING: System unbalanced at 42:25:00 hrs.
   
  WARNING: System unbalanced at 42:30:00 hrs.
   
  WARNING: System unbalanced at 42:35:00 hrs.
   
  WARNING: System unbalanced at 42:45:00 hrs.
   
  WARNING: System unbalanced at 42:50:00 hrs.
   
  WARNING: System unbalanced at 42:55:00 hrs.
   
  WARNING: System unbalanced at 43:00:00 hrs.
   
  WARNING: System unbalanced at 43:05:00 hrs.
   
  WARNING: System unbalanced at 43:10:00 hrs.
   
  WARNING: System unbalanced at 43:15:00 hrs.
   
  WARNING: System unbalanced at 43:20:00 hrs.
   
  WARNING: System unbalanced at 43:30:00 hrs.
   
  WARNING: System unbalanced at 43:35:00 hrs.
   
  WARNING: System unbalanced at 43:40:00 hrs.
   
  WARNING: System unbalanced at 43:45:00 hrs.
   
  WARNING: System unbalanced at 44:00:00 hrs.
   
  WARNING: System unbalanced at 44:05:00 hrs.
   
  WARNING: System unbalanced at 44:10:00 hrs.
   
  WARNING: System unbalanced at 44:20:00 hrs.
   
  WARNING: System unbalanced at 44:25:00 hrs.
   
  WARNING: System unbalanced at 44:30:00 hrs.
   
  WARNING: System unbalanced at 44:35:00 hrs.
   
  WARNING: System unbalanced at 44:40:00 hrs.
   
  WARNING: System unbalanced at 44:50:00 hrs.
   
  WARNING: System unbalanced at 44:55:00 hrs.
   
  WARNING: System unbalanced at 45:00:00 hrs.
   
  WARNING: System unbalanced at 45:05:00 hrs.
   
  WARNING: System unbalanced at 45:10:00 hrs.
   
  WARNING: System unbalanced at 45:15:00 hrs.
   
  WARNING: System unbalanced at 45:20:00 hrs.
   
  WARNING: System unbalanced at 45:25:00 hrs.
   
  WARNING: System unbalanced at 45:30:00 hrs.
   
  WARNING: System unbalanced at 45:35:00 hrs.
   
  WARNING: System unbalanced at 45:40:00 hrs.
   
  WARNING: System unbalanced at 45:45:00 hrs.
   
  WARNING: System unbalanced at 46:00:00 hrs.
   
  WARNING: System unbalanced at 46:05:00 hrs.
   
  WARNING: System unbalanced at 46:10:00 hrs.
   
  WARNING: System unbalanced at 46:15:00 hrs.
   
  WARNING: System unbalanced at 46:20:00 hrs.
   
  WARNING: System unbalanced at 46:25:00 hrs.
   
  WARNING: System unbalanced at 46:30:00 hrs.
   
  WARNING: System unbalanced at 46:35:00 hrs.
   
  WARNING: System unbalanced at 46:45:00 hrs.
   
  WARNING: System unbalanced at 46:50:00 hrs.
   
  WARNING: System unbalanced at 46:55:00 hrs.
   
  WARNING: System unbalanced at 47:00:00 hrs.
   
  WARNING: System unbalanced at 47:05:00 hrs.
   
  WARNING: System unbalanced at 47:10:00 hrs.
   
  WARNING: System unbalanced at 47:15:00 hrs.
   
  WARNING: System unbalanced at 47:20:00 hrs.
   
  WARNING: System unbalanced at 47:25:00 hrs.
   
  WARNING: System unbalanced at 47:30:00 hrs.
   
  WARNING: System unbalanced at 47:35:00 hrs.
   
  WARNING: System unbalanced at 47:40:00 hrs.
   
  WARNING: System unbalanced at 47:45:00 hrs.
   
  WARNING: System unbalanced at 47:50:00 hrs.
   
  WARNING: System unbalanced at 47:55:00 hrs.
   
  WARNING: System unbalanced at 48:00:00 hrs.
   
  WARNING: System unbalanced at 48:05:00 hrs.
   
  WARNING: System unbalanced at 48:10:00 hrs.
   
  WARNING: System unbalanced at 48:15:00 hrs.
   
  WARNING: System unbalanced at 48:20:00 hrs.
   
  WARNING: System unbalanced at 48:25:00 hrs.
   
  WARNING: System unbalanced at 48:30:00 hrs.
   
  WARNING: System unbalanced at 48:35:00 hrs.
   
  WARNING: System unbalanced at 48:40:00 hrs.
   
  WARNING: System unbalanced at 48:45:00 hrs.
   
  WARNING: System unbalanced at 48:50:00 hrs.
   
  WARNING: System unbalanced at 48:55:00 hrs.
   
  WARNING: System unbalanced at 49:00:00 hrs.
   
  WARNING: System unbalanced at 49:05:00 hrs.
   
  WARNING: System unbalanced at 49:10:00 hrs.
   
  WARNING: System unbalanced at 49:15:00 hrs.
   
  WARNING: System unbalanced at 49:20:00 hrs.
   
  WARNING: System unbalanced at 49:25:00 hrs.
   
  WARNING: System unbalanced at 49:30:00 hrs.
   
  WARNING: System unbalanced at 49:35:00 hrs.
   
  WARNING: System unbalanced at 49:40:00 hrs.
   
  WARNING: System unbalanced at 49:45:00 hrs.
   
  WARNING: System unbalanced at 49:50:00 hrs.
   
  WARNING: System unbalanced at 49:55:00 hrs.
   
  WARNING: System unbalanced at 50:00:00 hrs.
   
  WARNING: System unbalanced at 50:05:00 hrs.
   
  WARNING: System unbalanced at 50:10:00 hrs.
   
  WARNING: System unbalanced at 50:15:00 hrs.
   
  WARNING: System unbalanced at 50:20:00 hrs.
   
  WARNING: System unbalanced at 50:25:00 hrs.
   
  WARNING: System unbalanced at 50:30:00 hrs.
   
  WARNING: System unbalanced at 50:35:00 hrs.
   
  WARNING: System unbalanced at 50:40:00 hrs.
   
  WARNING: System unbalanced at 50:45:00 hrs.
   
  WARNING: System unbalanced at 50:50:00 hrs.
   
  WARNING: System unbalanced at 50:55:00 hrs.
   
  WARNING: System unbalanced at 51:00:00 hrs.
   
  WARNING: System unbalanced at 51:05:00 hrs.
   
  WARNING: System unbalanced at 51:10:00 hrs.
   
  WARNING: System unbalanced at 51:15:00 hrs.
   
  WARNING: System unbalanced at 51:20:00 hrs.
   
  WARNING: System unbalanced at 51:25:00 hrs.
   
  WARNING: System unbalanced at 51:30:00 hrs.
   
  WARNING: System unbalanced at 51:35:00 hrs.
   
  WARNING: System unbalanced at 51:40:00 hrs.
   
  WARNING: System unbalanced at 51:45:00 hrs.
   
  WARNING: System unbalanced at 51:50:00 hrs.
   
  WARNING: System unbalanced at 51:55:00 hrs.
   
  WARNING: System unbalanced at 52:00:00 hrs.
   
  WARNING: System unbalanced at 52:05:00 hrs.
   
  WARNING: System unbalanced at 52:10:00 hrs.
   
  WARNING: System unbalanced at 52:15:00 hrs.
   
  WARNING: System unbalanced at 52:20:00 hrs.
   
  WARNING: System unbalanced at 52:25:00 hrs.
   
  WARNING: System unbalanced at 52:30:00 hrs.
   
  WARNING: System unbalanced at 52:35:00 hrs.
   
  WARNING: System unbalanced at 52:40:00 hrs.
   
  WARNING: System unbalanced at 52:45:00 hrs.
   
  WARNING: System unbalanced at 52:50:00 hrs.
   
  WARNING: System unbalanced at 52:55:00 hrs.
   
  WARNING: System unbalanced at 53:00:00 hrs.
   
  WARNING: System unbalanced at 53:05:00 hrs.
   
  WARNING: System unbalanced at 53:10:00 hrs.
   
  WARNING: System unbalanced at 53:15:00 hrs.
   
  WARNING: System unbalanced at 53:20:00 hrs.
   
  WARNING: System unbalanced at 53:25:00 hrs.
   
  WARNING: System unbalanced at 53:30:00 hrs.
   
  WARNING: System unbalanced at 53:35:00 hrs.
   
  WARNING: System unbalanced at 53:40:00 hrs.
   
  WARNING: System unbalanced at 53:45:00 hrs.
   
  WARNING: System unbalanced at 53:50:00 hrs.
   
  WARNING: System unbalanced at 53:55:00 hrs.
   
  WARNING: System unbalanced at 54:00:00 hrs.
   
  WARNING: System unbalanced at 54:05:00 hrs.
   
  WARNING: System unbalanced at 54:10:00 hrs.
   
  WARNING: System unbalanced at 54:15:00 hrs.
   
  WARNING: System unbalanced at 54:20:00 hrs.
   
  WARNING: System unbalanced at 54:25:00 hrs.
   
  WARNING: System unbalanced at 54:30:00 hrs.
   
  WARNING: System unbalanced at 54:35:00 hrs.
   
  WARNING: System unbalanced at 54:40:00 hrs.
   
  WARNING: System unbalanced at 54:45:00 hrs.
   
  WARNING: System unbalanced at 54:50:00 hrs.
   
  WARNING: System unbalanced at 54:55:00 hrs.
   
  WARNING: System unbalanced at 55:00:00 hrs.
   
  WARNING: System unbalanced at 55:05:00 hrs.
   
  WARNING: System unbalanced at 55:10:00 hrs.
   
  WARNING: System unbalanced at 55:15:00 hrs.
   
  WARNING: System unbalanced at 55:20:00 hrs.
   
  WARNING: System unbalanced at 55:25:00 hrs.
   
  WARNING: System unbalanced at 55:30:00 hrs.
   
  WARNING: System unbalanced at 55:35:00 hrs.
   
  WARNING: System unbalanced at 55:40:00 hrs.
   
  WARNING: System unbalanced at 55:45:00 hrs.
   
  WARNING: System unbalanced at 55:50:00 hrs.
   
  WARNING: System unbalanced at 55:55:00 hrs.
   
  WARNING: System unbalanced at 56:00:00 hrs.
   
  WARNING: System unbalanced at 56:05:00 hrs.
   
  WARNING: System unbalanced at 56:10:00 hrs.
   
  WARNING: System unbalanced at 56:15:00 hrs.
   
  WARNING: System unbalanced at 56:20:00 hrs.
   
  WARNING: System unbalanced at 56:25:00 hrs.
   
  WARNING: System unbalanced at 56:30:00 hrs.
   
  WARNING: System unbalanced at 56:35:00 hrs.
   
  WARNING: System unbalanced at 56:40:00 hrs.
   
  WARNING: System unbalanced at 56:45:00 hrs.
   
  WARNING: System unbalanced at 56:50:00 hrs.
   
  WARNING: System unbalanced at 56:55:00 hrs.
   
  WARNING: System unbalanced at 57:00:00 hrs.
   
  WARNING: System unbalanced at 57:05:00 hrs.
   
  WARNING: System unbalanced at 57:10:00 hrs.
   
  WARNING: System unbalanced at 57:20:00 hrs.
   
  WARNING: System unbalanced at 57:25:00 hrs.
   
  WARNING: System unbalanced at 57:35:00 hrs.
   
  WARNING: System unbalanced at 57:40:00 hrs.
   
  WARNING: System unbalanced at 57:45:00 hrs.
   
  WARNING: System unbalanced at 58:00:00 hrs.
   
  WARNING: System unbalanced at 58:40:00 hrs.
   
  WARNING: System unbalanced at 58:45:00 hrs.
   
  WARNING: System unbalanced at 59:00:00 hrs.
   
  WARNING: System unbalanced at 59:05:00 hrs.
   
  WARNING: System unbalanced at 59:10:00 hrs.
   
  WARNING: System unbalanced at 59:15:00 hrs.
   
  WARNING: Maximum trials exceeded at 59:25:00 hrs. System may be unstable.
   
  WARNING: System unbalanced at 59:40:00 hrs.
   
  WARNING: Maximum trials exceeded at 59:45:00 hrs. System may be unstable.
   
  WARNING: System unbalanced at 59:55:00 hrs.
   
  WARNING: System unbalanced at 60:05:00 hrs.
   
  WARNING: System unbalanced at 60:15:00 hrs.
   
  WARNING: System unbalanced at 60:20:00 hrs.
   
  WARNING: System unbalanced at 60:25:00 hrs.
   
  WARNING: System unbalanced at 60:30:00 hrs.
   
  WARNING: Maximum trials exceeded at 60:45:00 hrs. System may be unstable.
   
  WARNING: System unbalanced at 60:50:00 hrs.
   
  WARNING: System unbalanced at 60:55:00 hrs.
   
  WARNING: System unbalanced at 61:05:00 hrs.
   
  WARNING: System unbalanced at 61:10:00 hrs.
   
  WARNING: System unbalanced at 61:15:00 hrs.
   
  WARNING: System unbalanced at 61:20:00 hrs.
   
  WARNING: System unbalanced at 61:25:00 hrs.
   
  WARNING: Maximum trials exceeded at 61:30:00 hrs. System may be unstable.
   
  WARNING: System unbalanced at 61:35:00 hrs.
   
  WARNING: System unbalanced at 61:50:00 hrs.
   
  WARNING: System unbalanced at 61:55:00 hrs.
   
  WARNING: Maximum trials exceeded at 62:05:00 hrs. System may be unstable.
   
  WARNING: System unbalanced at 62:15:00 hrs.
   
  WARNING: System unbalanced at 62:20:00 hrs.
   
  WARNING: System unbalanced at 62:25:00 hrs.
   
  WARNING: System unbalanced at 62:30:00 hrs.
   
  WARNING: System unbalanced at 62:40:00 hrs.
   
  WARNING: Maximum trials exceeded at 62:50:00 hrs. System may be unstable.
   
  WARNING: System unbalanced at 63:00:00 hrs.
   
  WARNING: System unbalanced at 63:05:00 hrs.
   
  WARNING: System unbalanced at 63:10:00 hrs.
   
  WARNING: System unbalanced at 63:15:00 hrs.
   
  WARNING: System unbalanced at 63:20:00 hrs.
   
  WARNING: System unbalanced at 63:25:00 hrs.
   
  WARNING: System unbalanced at 63:30:00 hrs.
   
  WARNING: System unbalanced at 63:35:00 hrs.
   
  WARNING: System unbalanced at 63:40:00 hrs.
   
  WARNING: System unbalanced at 63:45:00 hrs.
   
  WARNING: System unbalanced at 63:50:00 hrs.
   
  WARNING: System unbalanced at 63:55:00 hrs.
   
  WARNING: System unbalanced at 64:00:00 hrs.
   
  WARNING: System unbalanced at 64:05:00 hrs.
   
  WARNING: System unbalanced at 64:10:00 hrs.
   
  WARNING: System unbalanced at 64:15:00 hrs.
   
  WARNING: System unbalanced at 64:20:00 hrs.
   
  WARNING: System unbalanced at 64:25:00 hrs.
   
  WARNING: System unbalanced at 64:30:00 hrs.
   
  WARNING: System unbalanced at 64:35:00 hrs.
   
  WARNING: System unbalanced at 64:40:00 hrs.
   
  WARNING: System unbalanced at 64:45:00 hrs.
   
  WARNING: System unbalanced at 64:50:00 hrs.
   
  WARNING: System unbalanced at 64:55:00 hrs.
   
  WARNING: System unbalanced at 65:00:00 hrs.
   
  WARNING: System unbalanced at 65:05:00 hrs.
   
  WARNING: System unbalanced at 65:10:00 hrs.
   
  WARNING: System unbalanced at 65:15:00 hrs.
   
  WARNING: System unbalanced at 65:20:00 hrs.
   
  WARNING: System unbalanced at 65:25:00 hrs.
   
  WARNING: System unbalanced at 65:30:00 hrs.
   
  WARNING: System unbalanced at 65:35:00 hrs.
   
  WARNING: System unbalanced at 65:40:00 hrs.
   
  WARNING: System unbalanced at 65:45:00 hrs.
   
  WARNING: System unbalanced at 65:50:00 hrs.
   
  WARNING: System unbalanced at 65:55:00 hrs.
   
  WARNING: System unbalanced at 66:00:00 hrs.
   
  WARNING: System unbalanced at 66:05:00 hrs.
   
  WARNING: System unbalanced at 66:10:00 hrs.
   
  WARNING: System unbalanced at 66:15:00 hrs.
   
  WARNING: System unbalanced at 66:20:00 hrs.
   
  WARNING: System unbalanced at 66:25:00 hrs.
   
  WARNING: System unbalanced at 66:30:00 hrs.
   
  WARNING: System unbalanced at 66:35:00 hrs.
   
  WARNING: System unbalanced at 66:40:00 hrs.
   
  WARNING: System unbalanced at 66:45:00 hrs.
   
  WARNING: System unbalanced at 66:50:00 hrs.
   
  WARNING: System unbalanced at 66:55:00 hrs.
   
  WARNING: System unbalanced at 67:05:00 hrs.
   
  WARNING: System unbalanced at 67:10:00 hrs.
   
  WARNING: System unbalanced at 67:15:00 hrs.
   
  WARNING: Maximum trials exceeded at 67:20:00 hrs. System may be unstable.
   
  WARNING: System unbalanced at 67:25:00 hrs.
   
  WARNING: System unbalanced at 67:40:00 hrs.
   
  WARNING: System unbalanced at 67:50:00 hrs.
   
  WARNING: System unbalanced at 67:55:00 hrs.
   
  WARNING: System unbalanced at 68:00:00 hrs.
   
  WARNING: Maximum trials exceeded at 68:05:00 hrs. System may be unstable.
   
  WARNING: Maximum trials exceeded at 68:20:00 hrs. System may be unstable.
   
  WARNING: System unbalanced at 68:50:00 hrs.
   
  WARNING: System unbalanced at 68:55:00 hrs.
   
  WARNING: System unbalanced at 69:00:00 hrs.
   
  WARNING: System unbalanced at 69:05:00 hrs.
   
  WARNING: System unbalanced at 69:10:00 hrs.
   
  WARNING: System unbalanced at 69:15:00 hrs.
   
  WARNING: System unbalanced at 69:20:00 hrs.
   
  WARNING: System unbalanced at 69:25:00 hrs.
   
  WARNING: System unbalanced at 69:30:00 hrs.
   
  WARNING: System unbalanced at 69:35:00 hrs.
   
  WARNING: System unbalanced at 69:40:00 hrs.
   
  WARNING: System unbalanced at 69:45:00 hrs.
   
  WARNING: System unbalanced at 69:50:00 hrs.
   
  WARNING: System unbalanced at 69:55:00 hrs.
   
  WARNING: System unbalanced at 70:00:00 hrs.
   
  WARNING: System unbalanced at 70:05:00 hrs.
   
  WARNING: System unbalanced at 70:10:00 hrs.
   
  WARNING: System unbalanced at 70:15:00 hrs.
   
  WARNING: System unbalanced at 70:20:00 hrs.
   
  WARNING: System unbalanced at 70:25:00 hrs.
   
  WARNING: System unbalanced at 70:30:00 hrs.
   
  WARNING: System unbalanced at 70:35:00 hrs.
   
  WARNING: System unbalanced at 70:40:00 hrs.
   
  WARNING: System unbalanced at 70:45:00 hrs.
   
  WARNING: System unbalanced at 70:50:00 hrs.
   
  WARNING: System unbalanced at 70:55:00 hrs.
   
  WARNING: System unbalanced at 71:00:00 hrs.
   
  WARNING: System unbalanced at 71:05:00 hrs.
   
  WARNING: System unbalanced at 71:10:00 hrs.
   
  WARNING: System unbalanced at 71:15:00 hrs.
   
  WARNING: System unbalanced at 71:20:00 hrs.
   
  WARNING: System unbalanced at 71:25:00 hrs.
   
  WARNING: System unbalanced at 71:30:00 hrs.
   
  WARNING: System unbalanced at 71:35:00 hrs.
   
  WARNING: System unbalanced at 71:40:00 hrs.
   
  WARNING: System unbalanced at 71:45:00 hrs.
   
  WARNING: System unbalanced at 71:50:00 hrs.
   
  WARNING: System unbalanced at 71:55:00 hrs.
   
  WARNING: System unbalanced at 72:00:00 hrs.
   
  Analysis ended Thu Feb 23 15:47:14 2023
